LAMMPS (29 Oct 2020)
variable        sname index eff_h2

units 		electron
newton		on
boundary	p p p

atom_style	electron

read_data	data.lammps
Reading data file ...
  orthogonal box = (0.0000000 0.0000000 0.0000000) to (26.540779 26.540779 26.540779)
  reading atoms ...
  2000 atoms

group           ion type 1
1000 atoms in group ion
group           el  type 2
1000 atoms in group el

pair_style      eff/cut 20.15
pair_coeff	* *

neigh_modify    one 20000 page 200000

comm_modify	vel yes

compute         effTemp all temp/eff
compute         energies all pair eff/cut
variable        eke equal c_energies[1]
variable        epauli equal c_energies[2]
variable        ecoul equal c_energies[3]
variable        erres equal c_energies[4]

compute         ion_Temp ion temp

thermo          1000
thermo_style    custom step pe temp press vol v_eke v_epauli v_ecoul v_erres density lx c_ion_Temp
thermo_modify   temp effTemp

# structure minimization
min_style	cg
minimize 	0 1.0e-4 10 10
  update every 1 steps, delay 0 steps, check yes
Step PotEng Temp Press Volume v_eke v_epauli v_ecoul v_erres Density Lx c_ion_Temp
0   -326.34501            0 4.6015763e+11    18695.668    451.07154    179.63813   -957.05468            0   0.10740135    26.540779            0
Loop time of 1.31499 on 8 procs for 10 steps with 2000 atoms

Minimization stats:
  Stopping criterion = max force evaluations
  Energy initial, next-to-last, final =
  Force two-norm initial, final = 19.676762 15.828149
  Force max component initial, final = 0.94188775 0.7695003
  Final line search alpha, max atom move = 0.012587272 0.0096859095
  Iterations, force evaluations = 10 10

timestep	0.005

velocity	ion create 1000.0 4928459 rot yes mom yes dist gaussian

# nve
fix		1 all nve/eff
#fix             2 all imd 8888 trate 1 unwrap on nowait on

compute		peatom all pe/atom
compute		keatom all ke/atom/eff

dump		2 all xyz 1000 eff_h2.nve.xyz
compute         1 all property/atom spin eradius
dump		3 all custom 1000 eff_h2.nve.lammpstrj id type x y z c_1[1] c_1[2] c_peatom c_keatom

fix 		rescale_ions ion temp/rescale 100 800.0 800.0 0.02 0.5
run		20000
Step PotEng Temp Press Volume v_eke v_epauli v_ecoul v_erres Density Lx c_ion_Temp
10   -363.04092         1000 3.9026347e+11    18695.668    507.67417    136.98236   -1007.6975            0   0.10740135    26.540779         1000
Averages over the last 11 of 22 rows, steps 11000 to 20010:
PotEng Temp Press Volume v_eke v_epauli v_ecoul v_erres Density Lx c_ion_Temp
-459.686 1309.15 8.83457e+10 18695.7 596.768 17.0437 -1073.5 0 0.107401 26.5408 803.804
Loop time of 1557.56 on 8 procs for 20000 steps with 2000 atoms

write_restart   restart.after_rescale
System init for write_restart ...
unfix		rescale_ions

run		20000
Step PotEng Temp Press Volume v_eke v_epauli v_ecoul v_erres Density Lx c_ion_Temp
20010   -459.97405    1287.6259 8.7156569e+10    18695.668    595.70539    16.679582    -1072.359            0   0.10740135    26.540779    805.28723
Averages over the last 11 of 22 rows, steps 31000 to 40010:
PotEng Temp Press Volume v_eke v_epauli v_ecoul v_erres Density Lx c_ion_Temp
-460.099 1313.93 8.61961e+10 18695.7 594.016 16.3976 -1070.51 0 0.107401 26.5408 838.015
Loop time of 1547.06 on 8 procs for 20000 steps with 2000 atoms

write_restart   restart.after_relax
System init for write_restart ...

fix             heat_ion ion heat 50 0.0347 # 9.1 K/fs
run		6000000
Step PotEng Temp Press Volume v_eke v_epauli v_ecoul v_erres Density Lx c_ion_Temp
40010    -460.1418    1322.9757 8.5354686e+10    18695.668    594.46832    16.262577   -1070.8727            0   0.10740135    26.540779    852.77353
Averages over the last 2900 of 5800 rows, steps 2940000 to 5839000:
PotEng Temp Press Volume v_eke v_epauli v_ecoul v_erres Density Lx c_ion_Temp
-95.6832 83544.6 7.79546e+11 18695.7 355.219 268.868 -719.771 0 0.107401 26.5408 34658.5
 584
